
  --CCDC--012526    3D                              

 40 41  0  0  0  0  0  0  0  0999 V2000
   -3.3529    2.8218    2.6430 C      0
   -2.3342    2.1260    3.2573 C      0
   -1.4579    1.3646    2.5020 C      0
   -1.5927    1.2887    1.1230 C      0
   -0.6361    0.4638    0.2996 C      0
    0.6632    0.3963    0.9296 O      0
    1.7829   -0.0820    0.2785 C      0
    2.9653   -0.1928    0.9904 C      0
    4.1069   -0.6652    0.3680 C      0
    4.0924   -1.0302   -0.9714 C      0
    5.3274   -1.5439   -1.6392 C      0
    5.0644   -2.4004   -2.6198 F      0
    6.1367   -2.1844   -0.8031 F      0
    6.0576   -0.5779   -2.1850 F      0
    2.9004   -0.9118   -1.6735 C      0
    1.7527   -0.4420   -1.0597 C      0
   -1.1349   -0.9687    0.1654 C      0
   -2.5292   -1.0732   -0.4303 C      0
   -2.5850   -0.5286   -1.7877 N      0
   -1.7611   -1.3004   -2.7257 C      0
   -2.6219    1.9957    0.5175 C      0
   -3.4968    2.7576    1.2740 C      0
   -4.0392    3.4181    3.2352 H      0
   -2.2185    2.1748    4.3350 H      0
   -0.6575    0.8216    2.9938 H      0
   -0.5390    0.9236   -0.6961 H      0
    2.9964    0.0907    2.0373 H      0
    5.0277   -0.7518    0.9353 H      0
    2.8683   -1.1920   -2.7212 H      0
    0.8346   -0.3574   -1.6307 H      0
   -0.4447   -1.5491   -0.4571 H      0
   -1.1492   -1.4263    1.1623 H      0
   -2.8391   -2.1254   -0.4494 H      0
   -3.2364   -0.5291    0.2078 H      0
   -2.2764    0.4436   -1.7790 H      0
   -1.8238   -0.8824   -3.7282 H      0
   -2.0936   -2.3355   -2.7689 H      0
   -0.7172   -1.2930   -2.4200 H      0
   -2.7425    1.9511   -0.5598 H      0
   -4.2973    3.3052    0.7876 H      0
  1  2  4
  2  3  4
  3  4  4
  4  5  1
  5  6  1
  6  7  1
  7  8  4
  8  9  4
  9 10  4
 10 11  1
 11 12  1
 11 13  1
 11 14  1
 10 15  4
 15 16  4
  5 17  1
 17 18  1
 18 19  1
 19 20  1
  4 21  4
 21 22  4
 22  1  4
 16  7  4
  1 23  1
  2 24  1
  3 25  1
  5 26  1
  8 27  1
  9 28  1
 15 29  1
 16 30  1
 17 31  1
 17 32  1
 18 33  1
 18 34  1
 19 35  1
 20 36  1
 20 37  1
 20 38  1
 21 39  1
 22 40  1
M  END
$$$$
